*MODEL INPUT FILE            B     1     1     1   999     0
*FILES              
MODEL          MZIXM047
FILEX          TEST2001.MZX                                                                                 
FILEA          TEST2001.MZA                                                                                 
FILET          TEST2001.MZT                                                                                 
SPECIES        MZIXM047.SPE ///home/george/DSSAT/build/Genotype/                                            
ECOTYPE        MZIXM047.ECO ///home/george/DSSAT/build/Genotype/                                            
CULTIVAR       MZIXM047.CUL ///home/george/DSSAT/build/Genotype/                                            
PESTS          MZIXM047.PST ///home/george/DSSAT/build/Pest/                                                
SOILS          SOIL.SOL     ///home/george/DSSAT/build/Soil/                                                
WEATHERW       TEST2001.WTH                                                                                 
OUTPUT         OVERVIEW
*SIMULATION CONTROL 
                   1     1     S 2020001  2150 IOWA BRUTEFORCE SIMUL    
                   Y     N     N     N     N     N     N     Y     M
                   M     M     E     R     S     R     R     1     G     S     2     D     0
                   R     N     N     N     R
                   N     Y     Y     1     Y     N     Y     Y     N     N     Y     N     N
!AUTOMATIC MANAGEM  
                   -99     -99   40.  100.   30.   40.   10.
                 30.   50.  100. GS000 IR001  10.0 1.000
                 30.   50.   25. FE001 GS000
                100.     1   20.
                 20300     -99  100.    0.
*EXP.DETAILS        
  1TEST2001 MZ ocation, TE                                                 
*TREATMENTS         
  1 1 0 0 RAINFED HIGH NITROGEN    
*CULTIVARS          
   MZ PC0001 2500-2600 GDD   
*FIELDS             
          T TEST2001   0.0    0. DR000    0. 100.0 00000 SL     180. IB00000007
         -99.00000       -99.00000    -99.00               1.0  100.   1.0 -99.0   -99   -99
*INITIAL CONDITIONS 
   MZ    2020001   100     0  1.00  1.00 -99.0  1000  0.80  0.00  100.   15.
      5. 0.086 0.500 0.100
     15. 0.086 0.500 0.100
     30. 0.086 0.500 0.100
     45. 0.086 0.500 0.100
     60. 0.086 0.500 0.100
     90. 0.076 0.600 0.100
    120. 0.076 0.500 0.100
    150. 0.130 0.500 0.100
    180. 0.258 0.500 0.100
    210. 0.244   0.0   0.0
*PLANTING DETAILS   
   2020100     -99   9.5   9.5     S     R   61.    0.   5.0  -99.  -99. -99.0 -99.0   0.0
*IRRIGATION         
   1.000    0.    0.    0. GS000 IR001   0.0
*FERTILIZERS        
*RESIDUES           
*CHEMICALS          
*TILLAGE            
*ENVIRONMENT        
*HARVEST            
   2020300 GS006   100     A  100.    0.
*SOIL               
 IB00000007  IBSNAT      SL     180. DEFAULT - DEEP SANDY LOAM                         
 Generic     Generic      -0.009  -0.099 Generic                                           
 -99    0.13   6.0  0.50   68.  1.00  1.00 IB001 IB001 IB001 -99  
    5.       0.052 0.176 0.359 1.000  -99.  1.61 0.700  10.0  30.0   0.0 0.070  6.50-99.00-99.00-99.00
   15.       0.052 0.176 0.359 1.000  -99.  1.61 0.700  10.0  30.0   0.0 0.070  6.50-99.00-99.00-99.00
   30.       0.052 0.176 0.359 0.638  -99.  1.61 0.660  10.0  30.0   0.0 0.070  6.50-99.00-99.00-99.00
   45.       0.073 0.192 0.360 0.472  -99.  1.61 0.580  10.0  30.0   0.0 0.060  6.50-99.00-99.00-99.00
   60.       0.073 0.192 0.360 0.350  -99.  1.61 0.580  10.0  30.0   0.0 0.060  6.50-99.00-99.00-99.00
   90.       0.128 0.232 0.361 0.223  -99.  1.61 0.430  10.0  30.0   0.0 0.040  6.50-99.00-99.00-99.00
  120.       0.143 0.243 0.359 0.122  -99.  1.62 0.260  10.0  30.0   0.0 0.030  6.50-99.00-99.00-99.00
  150.       0.138 0.243 0.360 0.067  -99.  1.62 0.120  10.0  30.0   0.0 0.010  6.50-99.00-99.00-99.00
  180.       0.138 0.244 0.361 0.037  -99.  1.62 0.040  10.0  30.0   0.0   0.0  6.50-99.00-99.00-99.00
  210.       0.138 0.244 0.361 0.020  -99.  1.62 0.010  10.0  30.0   0.0   0.0  6.50-99.00-99.00-99.00
                    
    5.-99.00 -99.0 -99.0 -99.0 -99.0 -99.0 -99.0 -99.0 -99.0 -99.0-99.00 -99.0 -99.0 -99.0 -99.0 -99.0  -99.
   15.-99.00 -99.0 -99.0 -99.0 -99.0 -99.0 -99.0 -99.0 -99.0 -99.0-99.00 -99.0 -99.0 -99.0 -99.0 -99.0  -99.
   30.-99.00 -99.0 -99.0 -99.0 -99.0 -99.0 -99.0 -99.0 -99.0 -99.0-99.00 -99.0 -99.0 -99.0 -99.0 -99.0  -99.
   45.-99.00 -99.0 -99.0 -99.0 -99.0 -99.0 -99.0 -99.0 -99.0 -99.0-99.00 -99.0 -99.0 -99.0 -99.0 -99.0  -99.
   60.-99.00 -99.0 -99.0 -99.0 -99.0 -99.0 -99.0 -99.0 -99.0 -99.0-99.00 -99.0 -99.0 -99.0 -99.0 -99.0  -99.
   90.-99.00 -99.0 -99.0 -99.0 -99.0 -99.0 -99.0 -99.0 -99.0 -99.0-99.00 -99.0 -99.0 -99.0 -99.0 -99.0  -99.
  120.-99.00 -99.0 -99.0 -99.0 -99.0 -99.0 -99.0 -99.0 -99.0 -99.0-99.00 -99.0 -99.0 -99.0 -99.0 -99.0  -99.
  150.-99.00 -99.0 -99.0 -99.0 -99.0 -99.0 -99.0 -99.0 -99.0 -99.0-99.00 -99.0 -99.0 -99.0 -99.0 -99.0  -99.
  180.-99.00 -99.0 -99.0 -99.0 -99.0 -99.0 -99.0 -99.0 -99.0 -99.0-99.00 -99.0 -99.0 -99.0 -99.0 -99.0  -99.
  210.-99.00 -99.0 -99.0 -99.0 -99.0 -99.0 -99.0 -99.0 -99.0 -99.0-99.00 -99.0 -99.0 -99.0 -99.0 -99.0  -99.
                    
    5.-99.00-99.00-99.00-99.00
   15.-99.00-99.00-99.00-99.00
   30.-99.00-99.00-99.00-99.00
   45.-99.00-99.00-99.00-99.00
   60.-99.00-99.00-99.00-99.00
   90.-99.00-99.00-99.00-99.00
  120.-99.00-99.00-99.00-99.00
  150.-99.00-99.00-99.00-99.00
  180.-99.00-99.00-99.00-99.00
  210.-99.00-99.00-99.00-99.00
*CULTIVAR           
PC0001 2500-2600 GDD    IB0001  160.0 0.750 780.0 750.0  8.50 49.00 658.4 733.3  16
