*MODEL INPUT FILE            A     1     1     1     1     0
*FILES              
MODEL          MZIXM047
FILEX          TEST0001.EXP                                                                                 
FILEA          TEST0001.EXA                                                                                 
FILET          TEST0001.EXT                                                                                 
SPECIES        MZIXM047.SPE ///home/george/DSSAT/build/Genotype/                                            
ECOTYPE        MZIXM047.ECO ///home/george/DSSAT/build/Genotype/                                            
CULTIVAR       MZIXM047.CUL ///home/george/DSSAT/build/Genotype/                                            
PESTS          MZIXM047.PST ///home/george/DSSAT/build/Pest/                                                
SOILS          SOIL.SOL     ///home/george/DSSAT/build/Soil/                                                
WEATHERW       UFGA8201.WTH ///home/george/DSSAT/build/Weather/                                             
OUTPUT         OVERVIEW
*SIMULATION CONTROL 
                   1     1     S 1982001  2150 IOWA BRUTEFORCE SIMUL    
                   Y     N     N     N     N     N     N     Y     M
                   M     M     E     R     S     R     R     1     G     S     2     D     0
                   R     N     N     N     R
                   N     Y     Y     1     Y     N     Y     Y     N     N     Y     N     N
!AUTOMATIC MANAGEM  
                   -99     -99   40.  100.   30.   40.   10.
                 30.   50.  100. GS000 IR001  10.0 1.000
                 30.   50.   25. FE001 GS000
                100.     1   20.
                 82176     -99  100.    0.
*EXP.DETAILS        
  1TEST0001 EX                                                             
*TREATMENTS         
  1 1 0 0 RAINFED HIGH NITROGEN    
*CULTIVARS          
   MZ PC0003 2650-2700 GDD   
*FIELDS             
          T UFGA8201   0.0    0. DR000    0. 100.0 00000 -99    180. IBMZ910014 -99.0-99.00
     -0.0000000099   -0.0000000099    -0.099               1.0  100.   1.0 -99.0   -99   -99
*INITIAL CONDITIONS 
   MZ    1982001   100     0  1.00  1.00 -99.0  1000  0.80  0.00  100.   15.
      5. 0.086 0.500 0.100
     15. 0.086 0.500 0.100
     30. 0.086 0.500 0.100
     45. 0.086 0.500 0.100
     60. 0.086 0.500 0.100
     90. 0.076 0.600 0.100
    120. 0.076 0.500 0.100
    150. 0.130 0.500 0.100
    180. 0.258 0.500 0.100
*PLANTING DETAILS   
   1982056     -99   9.5   9.5     S     R   61.    0.   5.0  -99.  -99. -99.0 -99.0   0.0
*IRRIGATION         
   1.000    0.    0.    0. GS000 IR001   0.0
*FERTILIZERS        
*RESIDUES           
*CHEMICALS          
*TILLAGE            
*ENVIRONMENT        
*HARVEST            
   1982176 GS006   100     A  100.    0.
*SOIL               
 IBMZ910014  Gainesville -99    180. Millhopper Fine Sand                              
 Gainesville USA          29.630 -82.370 Loamy,silic,hyperth Arenic Paleudult              
 -99    0.18   2.0  0.65   60.  1.00  0.92 IB001 IB001 IB001 -99  
    5.       0.026 0.096 0.230 1.000  -99.  1.30 2.000 -99.0 -99.0 -99.0  -9.0  0.00-99.00 20.00-99.00
   15.       0.025 0.086 0.230 1.000  -99.  1.30 1.000 -99.0 -99.0 -99.0  -9.0  0.00-99.00-99.00-99.00
   30.       0.025 0.086 0.230 0.700  -99.  1.40 1.000 -99.0 -99.0 -99.0  -9.0  0.00-99.00-99.00-99.00
   45.       0.025 0.086 0.230 0.300  -99.  1.40 0.500 -99.0 -99.0 -99.0  -9.0  0.00-99.00-99.00-99.00
   60.       0.025 0.086 0.230 0.300  -99.  1.40 0.500 -99.0 -99.0 -99.0  -9.0  0.00-99.00-99.00-99.00
   90.       0.028 0.090 0.230 0.050  -99.  1.45 0.100 -99.0 -99.0 -99.0  -9.0  0.00-99.00-99.00-99.00
  120.       0.028 0.090 0.230 0.030  -99.  1.45 0.100 -99.0 -99.0 -99.0  -9.0  0.00-99.00-99.00-99.00
  150.       0.029 0.130 0.230 0.002  -99.  1.45 0.040 -99.0 -99.0 -99.0  -9.0  0.00-99.00-99.00-99.00
  180.       0.070 0.258 0.360 0.000  -99.  1.20 0.240 -99.0 -99.0 -99.0  -9.0  0.00-99.00-99.00-99.00
                    
    5.-99.00 -99.0 -99.0 -99.0 -99.0 -99.0 -99.0 -99.0 -99.0 -99.0-99.00 -99.0 -99.0 -99.0 -99.0 -99.0  -99.
   15.-99.00 -99.0 -99.0 -99.0 -99.0 -99.0 -99.0 -99.0 -99.0 -99.0-99.00 -99.0 -99.0 -99.0 -99.0 -99.0  -99.
   30.-99.00 -99.0 -99.0 -99.0 -99.0 -99.0 -99.0 -99.0 -99.0 -99.0-99.00 -99.0 -99.0 -99.0 -99.0 -99.0  -99.
   45.-99.00 -99.0 -99.0 -99.0 -99.0 -99.0 -99.0 -99.0 -99.0 -99.0-99.00 -99.0 -99.0 -99.0 -99.0 -99.0  -99.
   60.-99.00 -99.0 -99.0 -99.0 -99.0 -99.0 -99.0 -99.0 -99.0 -99.0-99.00 -99.0 -99.0 -99.0 -99.0 -99.0  -99.
   90.-99.00 -99.0 -99.0 -99.0 -99.0 -99.0 -99.0 -99.0 -99.0 -99.0-99.00 -99.0 -99.0 -99.0 -99.0 -99.0  -99.
  120.-99.00 -99.0 -99.0 -99.0 -99.0 -99.0 -99.0 -99.0 -99.0 -99.0-99.00 -99.0 -99.0 -99.0 -99.0 -99.0  -99.
  150.-99.00 -99.0 -99.0 -99.0 -99.0 -99.0 -99.0 -99.0 -99.0 -99.0-99.00 -99.0 -99.0 -99.0 -99.0 -99.0  -99.
  180.-99.00 -99.0 -99.0 -99.0 -99.0 -99.0 -99.0 -99.0 -99.0 -99.0-99.00 -99.0 -99.0 -99.0 -99.0 -99.0  -99.
                    
    5.-99.00-99.00-99.00-99.00
   15.-99.00-99.00-99.00-99.00
   30.-99.00-99.00-99.00-99.00
   45.-99.00-99.00-99.00-99.00
   60.-99.00-99.00-99.00-99.00
   90.-99.00-99.00-99.00-99.00
  120.-99.00-99.00-99.00-99.00
  150.-99.00-99.00-99.00-99.00
  180.-99.00-99.00-99.00-99.00
*CULTIVAR           
PC0003 2650-2700 GDD    IB0001  212.0 0.750 850.0 800.0  8.50 49.00 723.3 805.6  18
