*EXP.DETAILS: TEST2001MZ ocation, TE                                                 

*FILES
@N  EXP.DATA    AFILE        ADIR
  1 EXP         TEST2001.MZA                                                                                 
@N  SPECIES     SPFILE       SPDIR
  1 SPE         MZIXM047.SPE ///home/george/DSSAT/build/Genotype/                                            
@N  ECOTYPE     EFILE        EDIR
  1 ECO         MZIXM047.ECO ///home/george/DSSAT/build/Genotype/                                            
@N  CULTIVAR    CFILE        CDIR
  1 CUL         MZIXM047.CUL ///home/george/DSSAT/build/Genotype/                                            
@N  SOIL        SFILE        SDIR
  1 SOIL        SOIL.SOL     ///home/george/DSSAT/build/Soil/                                                
@N  WEATHER     WFILE        WDIR
  1 WEATH       TEST2001.WTH                                                                                 

*SIMULATION CONTROL
@N  GENERAL     NYERS NREPS START   SDATE RSEED SNAME.................... MODEL...
  1 GE              1     1     S 2020001  2150 IOWA BRUTEFORCE SIMUL     MZIXM047
@N  OPTIONS     WATER NITRO SYMBI PHOSP POTAS DISES  CHEM  TILL   CO2
  1 OP              Y     N     N     N     N     N     N     Y     M
@N  METHODS     WTHER INCON LIGHT EVAPO INFIL PHOTO HYDRO NSWIT SOMDY MESEV MESOL METMP MEGHG
  1 ME              M     M     E     R     S     R     R     1     G     S     2     D     0
@N  MANAGEMENT  PLANT IRRIG FERTI RESID HARVS
  1 MA              R     N     N     N     R
@N  OUTPUTS     FNAME OVVEW SUMRY FROPT GROUT CAOUT WAOUT NIOUT MIOUT DIOUT  LONG CHOUT OPOUT
  1 OU              N     Y     Y     1     Y     N     Y     Y     N     N     Y     N     N

!AUTOMATIC MANAGEM
@N  PLANTING      PFRST   PLAST PH2OL PH2OU PH2OD PSTMX PSTMN
  1 PL              -99     -99   40.  100.   30.   40.   10.
@N  IRRIGATION  IMDEP ITHRL ITHRU IROFF IMETH IRAMT IREFF
  1 IR            30.   50.  100. GS000 IR001  10.0 1.000
@N  NITROGEN    NMDEP NMTHR NAMNT NCODE NAOFF
  1 NI            30.   50.   25. FE001 GS000
@N  RESIDUES    RIPCN RTIME RIDEP
  1 RE           100.     1   20.
@N  HARVEST     HFRST   HLAST HPCNP HRCNR
  1 HA          20300     -99  100.    0.

*TREATMENTS
@N   R O C TNAME....................  CU  FL  SA  IC  MP  MI  MF  MR  MC  MT  ME  MH  SM
  1  1 0 0 RAINFED HIGH NITROGEN       1   1   0   1   1   0   0   0   0   0   0   1   1

*CULTIVARS
@C  CR INGENO CNAME
  1 MZ PC0001 2500-2600 GDD   

*FIELDS
@L  ID_FIELD WSTA....  FLSA  FLOB  FLDT  FLDD  FLDS  FLST SLTX   SLDP ID_SOIL
  1        T TEST2001   0.0    0. DR000    0.  100. 00000 SL     180. IB00000007
@L             XCRD            YCRD      ELEV              AREA  SLEN  FLWR  SLAS PRMGT
  1       -99.00000       -99.00000    -99.00               1.0  100.   1.0 -99.0   -99   -99

*INITIAL CONDITIONS
@C  PCR     ICDAT  ICRT  ICND  ICRN  ICRE  ICWD ICRES ICREN ICREP ICRIP ICRID
  1 MZ    2020001   100     0  1.00  1.00 -99.0  1000  0.80  0.00  100.   15.
@C   ICBL  SH2O  SNH4  SNO3
  1    5. 0.086   0.5   0.1
  1   15. 0.086   0.5   0.1
  1   30. 0.086   0.5   0.1
  1   45. 0.086   0.5   0.1
  1   60. 0.086   0.5   0.1
  1   90. 0.076   0.6   0.1
  1  120. 0.076   0.5   0.1
  1  150. 0.130   0.5   0.1
  1  180. 0.258   0.5   0.1
  1  210. 0.244   0.0   0.0

*PLANTING DETAILS
@P    PDATE   EDATE  PPOP  PPOE  PLME  PLDS  PLRS  PLRD  PLDP  PLWT  PAGE  PENV  PLPH  SPRL
  1 2020100     -99   9.5   9.5     S     R   61.    0.   5.0  -99.  -99. -99.0 -99.0   0.0

*IRRIGATION
@I   IEFF  IDEP  ITHR  IEPT  IOFF  IAME  IAMT
  0 1.000    0.    0.    0. GS000 IR001   0.0
@I    IDATE  IROP IRVAL

*FERTILIZERS
@F    FDATE  FMCD  FACD  FDEP  FAMN  FAMP  FAMK  FAMC  FAMO  FOCD

*RESIDUES
@R    RDATE  RCOD  RAMT  RESN  RESP  RESK  RINP  RDEP  RMET

*CHEMICALS
@C    CDATE CHCOD CHAMT  CHME CHDEP   CHT

*TILLAGE
@T    TDATE TIMPL  TDEP

*ENVIRONMENT
@E    ODATE  EDAY  ERAD  EMAX  EMIN ERAIN  ECO2  EDEW EWIND

*HARVEST
@H    HDATE  HSTG  HCOM HSIZE   HPC  HBPC
  1 2020300 GS006   100     A  100.    0.
